
     RDKit          3D

 22 23  0  0  0  0  0  0  0  0999 V2000
   44.9461    4.0764    8.2909 N   0  0  0  0  0  0  0  0  0  0  0  0
   44.6515    3.1125    9.1838 C   0  0  0  0  0  0  0  0  0  0  0  0
   45.2138    1.8403    9.0800 C   0  0  0  0  0  0  0  0  0  0  0  0
   46.1275    1.5586    8.0612 C   0  0  0  0  0  0  0  0  0  0  0  0
   46.4584    2.5595    7.1529 C   0  0  0  0  0  0  0  0  0  0  0  0
   45.8325    3.7877    7.3027 C   0  0  0  0  0  0  0  0  0  0  0  0
   47.4096    2.3784    6.0338 C   0  0  0  0  0  0  0  0  0  0  0  0
   48.4069    1.6776    6.1498 O   0  0  0  0  0  0  0  0  0  0  0  0
   47.1271    2.9942    4.8458 N   0  0  0  0  0  0  0  0  0  0  0  0
   43.7129    3.3353   10.1922 N   0  0  0  0  0  0  0  0  0  0  0  0
   43.6298    4.6802   10.7734 C   0  0  0  0  0  0  0  0  0  0  0  0
   43.6910    4.7017   12.3384 C   0  0  1  0  0  0  0  0  0  0  0  0
   45.0422    5.2562   12.8446 C   0  0  0  0  0  0  0  0  0  0  0  0
   46.0350    4.3767   13.3176 C   0  0  0  0  0  0  0  0  0  0  0  0
   47.2687    4.8464   13.7723 C   0  0  0  0  0  0  0  0  0  0  0  0
   47.5426    6.2101   13.7652 C   0  0  0  0  0  0  0  0  0  0  0  0
   46.5855    7.1154   13.2974 C   0  0  0  0  0  0  0  0  0  0  0  0
   45.3428    6.6305   12.8500 C   0  0  0  0  0  0  0  0  0  0  0  0
   42.4630    5.4638   12.8895 C   0  0  0  0  0  0  0  0  0  0  0  0
   43.5485    3.2415   12.8387 C   0  0  0  0  0  0  0  0  0  0  0  0
   46.8635    8.5971   13.3163 C   0  0  0  0  0  0  0  0  0  0  0  0
   47.3742    9.0558   12.0304 N   0  0  0  0  0  0  0  0  0  0  0  0
  1  2  4  0
  2  3  4  0
  3  4  4  0
  4  5  4  0
  5  6  4  0
  1  6  4  0
  5  7  1  0
  7  8  2  0
  7  9  1  0
  2 10  1  0
 10 11  1  0
 11 12  1  0
 12 13  1  0
 14 15  4  0
 15 16  4  0
 16 17  4  0
 17 18  4  0
 13 14  4  0
 13 18  4  0
 12 19  1  1
 20 12  1  0
 17 21  1  0
 21 22  1  0
M  END
