
 OpenBabel12282419013D

 55 59  0  0  0  0  0  0  0  0999 V2000
   46.0330    4.6815    8.3453 N   0  0  0  0  0  0  0  0  0  0  0  0
   45.1977    4.1033    9.2336 C   0  0  0  0  0  0  0  0  0  0  0  0
   44.9245    2.7440    9.3618 C   0  0  0  0  0  0  0  0  0  0  0  0
   45.5589    1.8649    8.4697 C   0  0  0  0  0  0  0  0  0  0  0  0
   46.4267    2.4082    7.5148 C   0  0  0  0  0  0  0  0  0  0  0  0
   46.6246    3.7839    7.5123 C   0  0  0  0  0  0  0  0  0  0  0  0
   47.1166    1.4912    6.5761 C   0  0  0  0  0  0  0  0  0  0  0  0
   46.8968    0.2828    6.5861 O   0  0  0  0  0  0  0  0  0  0  0  0
   47.9938    2.0178    5.6671 N   0  0  0  0  0  0  0  0  0  0  0  0
   44.0270    2.6013   10.4536 C   0  0  0  0  0  0  0  0  0  0  0  0
   43.7635    3.8624   10.9472 C   0  0  0  0  0  0  0  0  0  0  0  0
   44.4596    4.7707   10.1835 N   0  0  0  0  0  0  0  0  0  0  0  0
   44.5137    6.2130   10.3730 C   0  0  0  0  0  0  0  0  0  0  0  0
   45.8436    6.6574   10.9683 C   0  0  0  0  0  0  0  0  0  0  0  0
   45.8531    7.6923   11.9023 N   0  0  0  0  0  0  0  0  0  0  0  0
   46.8802    6.0977   10.5966 O   0  0  0  0  0  0  0  0  0  0  0  0
   47.0688    7.9753   12.6915 C   0  0  1  0  0  0  0  0  0  0  0  0
   46.8471    8.9630   13.8532 C   0  0  0  0  0  0  0  0  0  0  0  0
   48.0964    9.0840   14.7415 C   0  0  1  0  0  0  0  0  0  0  0  0
   48.4084    7.7518   15.2787 N   0  0  0  0  0  0  0  0  0  0  0  0
   48.9747    7.0467   14.1194 C   0  0  1  0  0  0  0  0  0  0  0  0
   47.8347    6.7131   13.1350 C   0  0  0  0  0  0  0  0  0  0  0  0
   44.6776    8.4947   12.2226 C   0  0  0  0  0  0  0  0  0  0  0  0
   42.8581    4.2000   12.1646 C   0  0  0  0  0  0  0  0  0  0  0  0
   43.3405    3.8076   13.5410 C   0  0  0  0  0  0  0  0  0  0  0  0
   43.2533    5.2626   13.1610 C   0  0  0  0  0  0  0  0  0  0  0  0
   49.3607    9.4324   13.9556 C   0  0  0  0  0  0  0  0  0  0  0  0
   49.9606    8.0749   13.5664 C   0  0  0  0  0  0  0  0  0  0  0  0
   45.3904    0.8478    8.5165 H   0  0  0  0  0  0  0  0  0  0  0  0
   47.2828    4.1599    6.8120 H   0  0  0  0  0  0  0  0  0  0  0  0
   48.1710    2.9862    5.6579 H   0  0  0  0  0  0  0  0  0  0  0  0
   48.4477    1.4282    5.0224 H   0  0  0  0  0  0  0  0  0  0  0  0
   43.6415    1.7140   10.8129 H   0  0  0  0  0  0  0  0  0  0  0  0
   43.7241    6.5051   11.0334 H   0  0  0  0  0  0  0  0  0  0  0  0
   44.4069    6.6779    9.4152 H   0  0  0  0  0  0  0  0  0  0  0  0
   47.7105    8.4794   11.9994 H   0  0  0  0  0  0  0  0  0  0  0  0
   46.6135    9.9262   13.4499 H   0  0  0  0  0  0  0  0  0  0  0  0
   46.0431    8.5950   14.4558 H   0  0  0  0  0  0  0  0  0  0  0  0
   47.8704    9.8387   15.4655 H   0  0  0  0  0  0  0  0  0  0  0  0
   47.5653    7.2860   15.6141 H   0  0  0  0  0  0  0  0  0  0  0  0
   49.4524    6.1128   14.3304 H   0  0  0  0  0  0  0  0  0  0  0  0
   47.1504    6.0435   13.6127 H   0  0  0  0  0  0  0  0  0  0  0  0
   48.2687    6.2663   12.2650 H   0  0  0  0  0  0  0  0  0  0  0  0
   43.8641    8.2032   11.5917 H   0  0  0  0  0  0  0  0  0  0  0  0
   44.8984    9.5297   12.0646 H   0  0  0  0  0  0  0  0  0  0  0  0
   44.4082    8.3397   13.2465 H   0  0  0  0  0  0  0  0  0  0  0  0
   41.9835    4.0294   11.5722 H   0  0  0  0  0  0  0  0  0  0  0  0
   42.6536    3.3984   14.2520 H   0  0  0  0  0  0  0  0  0  0  0  0
   44.1119    3.1694   13.9187 H   0  0  0  0  0  0  0  0  0  0  0  0
   44.1476    5.8305   13.0106 H   0  0  0  0  0  0  0  0  0  0  0  0
   42.7750    6.1250   13.5762 H   0  0  0  0  0  0  0  0  0  0  0  0
   50.0437    9.9865   14.5651 H   0  0  0  0  0  0  0  0  0  0  0  0
   49.1527   10.0438   13.1025 H   0  0  0  0  0  0  0  0  0  0  0  0
   50.0406    7.9879   12.5029 H   0  0  0  0  0  0  0  0  0  0  0  0
   50.9484    7.9407   13.9551 H   0  0  0  0  0  0  0  0  0  0  0  0
  1  2  2  0  0  0  0
  1  6  1  0  0  0  0
  2  3  1  0  0  0  0
  2 12  1  0  0  0  0
  3  4  2  0  0  0  0
  3 10  1  0  0  0  0
  4  5  1  0  0  0  0
  4 29  1  0  0  0  0
  5  6  2  0  0  0  0
  5  7  1  0  0  0  0
  6 30  1  0  0  0  0
  7  8  2  0  0  0  0
  7  9  1  0  0  0  0
  9 31  1  0  0  0  0
  9 32  1  0  0  0  0
 10 11  2  0  0  0  0
 10 33  1  0  0  0  0
 11 12  1  0  0  0  0
 12 13  1  0  0  0  0
 13 14  1  0  0  0  0
 13 34  1  0  0  0  0
 13 35  1  0  0  0  0
 14 15  1  0  0  0  0
 14 16  2  0  0  0  0
 15 23  1  0  0  0  0
 17 15  1  0  0  0  0
 17 18  1  0  0  0  0
 17 22  1  0  0  0  0
 17 36  1  6  0  0  0
 18 37  1  0  0  0  0
 18 38  1  0  0  0  0
 19 18  1  0  0  0  0
 19 20  1  0  0  0  0
 19 27  1  0  0  0  0
 19 39  1  1  0  0  0
 20 21  1  0  0  0  0
 20 40  1  0  0  0  0
 21 22  1  0  0  0  0
 21 28  1  0  0  0  0
 21 41  1  1  0  0  0
 22 42  1  0  0  0  0
 22 43  1  0  0  0  0
 23 44  1  0  0  0  0
 23 45  1  0  0  0  0
 23 46  1  0  0  0  0
 24 11  1  0  0  0  0
 24 25  1  0  0  0  0
 24 47  1  0  0  0  0
 25 26  1  0  0  0  0
 25 48  1  0  0  0  0
 25 49  1  0  0  0  0
 26 24  1  0  0  0  0
 26 50  1  0  0  0  0
 26 51  1  0  0  0  0
 27 28  1  0  0  0  0
 27 52  1  0  0  0  0
 27 53  1  0  0  0  0
 28 54  1  0  0  0  0
 28 55  1  0  0  0  0
M  END
$$$$
