
     RDKit          3D

 27 30  0  0  0  0  0  0  0  0999 V2000
   46.2340    4.9203    8.1936 N   0  0  0  0  0  0  0  0  0  0  0  0
   45.4717    4.1488    9.0002 C   0  0  0  0  0  0  0  0  0  0  0  0
   45.2973    2.7722    8.9154 C   0  0  0  0  0  0  0  0  0  0  0  0
   45.9886    2.0833    7.9060 C   0  0  0  0  0  0  0  0  0  0  0  0
   46.8183    2.8301    7.0648 C   0  0  0  0  0  0  0  0  0  0  0  0
   46.8852    4.2081    7.2404 C   0  0  0  0  0  0  0  0  0  0  0  0
   47.5751    2.1407    5.9989 C   0  0  0  0  0  0  0  0  0  0  0  0
   48.0432    1.0223    6.1668 O   0  0  0  0  0  0  0  0  0  0  0  0
   47.7732    2.8149    4.8247 N   0  0  0  0  0  0  0  0  0  0  0  0
   44.4012    2.4105    9.9502 C   0  0  0  0  0  0  0  0  0  0  0  0
   44.0578    3.5554   10.6484 C   0  0  0  0  0  0  0  0  0  0  0  0
   44.7183    4.6112   10.0608 N   0  0  0  0  0  0  0  0  0  0  0  0
   44.6625    6.0267   10.3874 C   0  0  0  0  0  0  0  0  0  0  0  0
   45.8473    6.4847   11.2267 C   0  0  0  0  0  0  0  0  0  0  0  0
   45.5579    7.0499   12.4779 N   0  0  0  0  0  0  0  0  0  0  0  0
   47.0095    6.3384   10.8416 O   0  0  0  0  0  0  0  0  0  0  0  0
   46.4404    8.1294   12.9756 C   0  0  0  0  0  0  0  0  0  0  0  0
   46.6399    9.2155   11.9154 C   0  0  0  0  0  0  0  0  0  0  0  0
   47.4376   10.3960   12.4819 C   0  0  0  0  0  0  0  0  0  0  0  0
   48.4149   10.0149   13.5126 N   0  0  0  0  0  0  0  0  0  0  0  0
   48.9205    8.6594   13.3248 C   0  0  0  0  0  0  0  0  0  0  0  0
   47.7944    7.6388   13.5276 C   0  0  0  0  0  0  0  0  0  0  0  0
   44.5189    6.5304   13.3596 C   0  0  0  0  0  0  0  0  0  0  0  0
   43.1020    3.4794   11.8806 C   0  0  2  0  0  0  0  0  0  0  0  0
   43.5878    3.8779   13.2449 C   0  0  0  0  0  0  0  0  0  0  0  0
   43.2313    2.4444   12.9574 C   0  0  0  0  0  0  0  0  0  0  0  0
   49.4932   10.9946   13.6033 C   0  0  0  0  0  0  0  0  0  0  0  0
  1  2  4  0
  2  3  4  0
  3  4  4  0
  4  5  4  0
  5  6  4  0
  1  6  4  0
  5  7  1  0
  7  8  2  0
  7  9  1  0
 11 12  4  0
  2 12  4  0
  3 10  4  0
 10 11  4  0
 12 13  1  0
 13 14  1  0
 14 15  1  0
 14 16  2  0
 15 17  1  0
 18 19  1  0
 19 20  1  0
 20 21  1  0
 21 22  1  0
 17 18  1  0
 17 22  1  0
 15 23  1  0
 24 11  1  6
 25 26  1  0
 24 25  1  0
 26 24  1  0
 20 27  1  0
M  END
