
 OpenBabel12282419013D

 48 51  0  0  0  0  0  0  0  0999 V2000
   44.8468    4.2174    8.4904 N   0  0  0  0  0  0  0  0  0  0  0  0
   44.4554    3.2271    9.3217 C   0  0  0  0  0  0  0  0  0  0  0  0
   44.9895    1.9417    9.2145 C   0  0  0  0  0  0  0  0  0  0  0  0
   45.9121    1.6561    8.2069 C   0  0  0  0  0  0  0  0  0  0  0  0
   46.2941    2.6632    7.3254 C   0  0  0  0  0  0  0  0  0  0  0  0
   45.7502    3.9214    7.5222 C   0  0  0  0  0  0  0  0  0  0  0  0
   47.2729    2.3705    6.2558 C   0  0  0  0  0  0  0  0  0  0  0  0
   48.1842    1.5710    6.4286 O   0  0  0  0  0  0  0  0  0  0  0  0
   47.1096    2.9902    5.0473 N   0  0  0  0  0  0  0  0  0  0  0  0
   43.5509    3.4769   10.3834 N   0  0  0  0  0  0  0  0  0  0  0  0
   44.0657    4.0031   11.6715 C   0  0  0  0  0  0  0  0  0  0  0  0
   44.3287    5.5066   11.6615 C   0  0  0  0  0  0  0  0  0  0  0  0
   45.5328    6.0421   12.1723 C   0  0  0  0  0  0  0  0  0  0  0  0
   45.8234    7.4181   12.1933 C   0  0  0  0  0  0  0  0  0  0  0  0
   44.8299    8.2699   11.6884 C   0  0  0  0  0  0  0  0  0  0  0  0
   43.6229    7.7801   11.1838 C   0  0  0  0  0  0  0  0  0  0  0  0
   43.3788    6.4109   11.1731 C   0  0  0  0  0  0  0  0  0  0  0  0
   43.4610    3.4122   12.9383 C   0  0  0  0  0  0  0  0  0  0  0  0
   44.8813    3.1122   12.5880 C   0  0  0  0  0  0  0  0  0  0  0  0
   47.0141    7.9166   12.7021 N   0  0  0  0  0  0  0  0  0  0  0  0
   47.0115    8.7685   13.9052 C   0  0  0  0  0  0  0  0  0  0  0  0
   48.1646    9.7988   13.8760 C   0  0  0  0  0  0  0  0  0  0  0  0
   49.5157    9.2378   13.7015 N   0  0  0  0  0  0  0  0  0  0  0  0
   49.4856    8.0237   12.8632 C   0  0  0  0  0  0  0  0  0  0  0  0
   48.2637    7.8905   11.9256 C   0  0  0  0  0  0  0  0  0  0  0  0
   44.7031    1.2051    9.8781 H   0  0  0  0  0  0  0  0  0  0  0  0
   46.3073    0.7071    8.1163 H   0  0  0  0  0  0  0  0  0  0  0  0
   46.0509    4.6819    6.8928 H   0  0  0  0  0  0  0  0  0  0  0  0
   46.3738    3.6315    4.9184 H   0  0  0  0  0  0  0  0  0  0  0  0
   47.7279    2.7950    4.3065 H   0  0  0  0  0  0  0  0  0  0  0  0
   42.5889    3.3027   10.2673 H   0  0  0  0  0  0  0  0  0  0  0  0
   46.2365    5.3885   12.5501 H   0  0  0  0  0  0  0  0  0  0  0  0
   44.9955    9.2885   11.6898 H   0  0  0  0  0  0  0  0  0  0  0  0
   42.9126    8.4339   10.8191 H   0  0  0  0  0  0  0  0  0  0  0  0
   42.4843    6.0567   10.7996 H   0  0  0  0  0  0  0  0  0  0  0  0
   43.2388    4.0471   13.7705 H   0  0  0  0  0  0  0  0  0  0  0  0
   42.5966    2.8207   13.1571 H   0  0  0  0  0  0  0  0  0  0  0  0
   45.1551    2.1281   12.2693 H   0  0  0  0  0  0  0  0  0  0  0  0
   45.8181    3.2119   13.0953 H   0  0  0  0  0  0  0  0  0  0  0  0
   46.0797    9.2917   13.9581 H   0  0  0  0  0  0  0  0  0  0  0  0
   47.1460    8.1399   14.7606 H   0  0  0  0  0  0  0  0  0  0  0  0
   48.1486   10.3370   14.8007 H   0  0  0  0  0  0  0  0  0  0  0  0
   47.9886   10.4106   13.0160 H   0  0  0  0  0  0  0  0  0  0  0  0
   49.8982    9.0006   14.6168 H   0  0  0  0  0  0  0  0  0  0  0  0
   49.4959    7.1741   13.5135 H   0  0  0  0  0  0  0  0  0  0  0  0
   50.3405    8.0883   12.2230 H   0  0  0  0  0  0  0  0  0  0  0  0
   48.3279    6.9650   11.3925 H   0  0  0  0  0  0  0  0  0  0  0  0
   48.2624    8.7115   11.2395 H   0  0  0  0  0  0  0  0  0  0  0  0
  1  2  2  0  0  0  0
  1  6  1  0  0  0  0
  2  3  1  0  0  0  0
  2 10  1  0  0  0  0
  3  4  2  0  0  0  0
  3 26  1  0  0  0  0
  4  5  1  0  0  0  0
  4 27  1  0  0  0  0
  5  6  2  0  0  0  0
  5  7  1  0  0  0  0
  6 28  1  0  0  0  0
  7  8  2  0  0  0  0
  7  9  1  0  0  0  0
  9 29  1  0  0  0  0
  9 30  1  0  0  0  0
 10 31  1  0  0  0  0
 11 10  1  0  0  0  0
 11 12  1  0  0  0  0
 11 18  1  0  0  0  0
 12 13  2  0  0  0  0
 12 17  1  0  0  0  0
 13 14  1  0  0  0  0
 13 32  1  0  0  0  0
 14 15  2  0  0  0  0
 14 20  1  0  0  0  0
 15 16  1  0  0  0  0
 15 33  1  0  0  0  0
 16 17  2  0  0  0  0
 16 34  1  0  0  0  0
 17 35  1  0  0  0  0
 18 19  1  0  0  0  0
 18 36  1  0  0  0  0
 18 37  1  0  0  0  0
 19 11  1  0  0  0  0
 19 38  1  0  0  0  0
 19 39  1  0  0  0  0
 20 21  1  0  0  0  0
 20 25  1  0  0  0  0
 21 22  1  0  0  0  0
 21 40  1  0  0  0  0
 21 41  1  0  0  0  0
 22 23  1  0  0  0  0
 22 42  1  0  0  0  0
 22 43  1  0  0  0  0
 23 24  1  0  0  0  0
 23 44  1  0  0  0  0
 24 25  1  0  0  0  0
 24 45  1  0  0  0  0
 24 46  1  0  0  0  0
 25 47  1  0  0  0  0
 25 48  1  0  0  0  0
M  END
$$$$
