
     RDKit          3D

 28 32  0  0  0  0  0  0  0  0999 V2000
   46.0330    4.6815    8.3453 N   0  0  0  0  0  0  0  0  0  0  0  0
   45.1977    4.1033    9.2336 C   0  0  0  0  0  0  0  0  0  0  0  0
   44.9245    2.7440    9.3618 C   0  0  0  0  0  0  0  0  0  0  0  0
   45.5589    1.8649    8.4697 C   0  0  0  0  0  0  0  0  0  0  0  0
   46.4267    2.4082    7.5148 C   0  0  0  0  0  0  0  0  0  0  0  0
   46.6246    3.7839    7.5123 C   0  0  0  0  0  0  0  0  0  0  0  0
   47.1166    1.4912    6.5761 C   0  0  0  0  0  0  0  0  0  0  0  0
   46.8968    0.2828    6.5861 O   0  0  0  0  0  0  0  0  0  0  0  0
   47.9938    2.0178    5.6671 N   0  0  0  0  0  0  0  0  0  0  0  0
   44.0270    2.6013   10.4536 C   0  0  0  0  0  0  0  0  0  0  0  0
   43.7635    3.8624   10.9472 C   0  0  0  0  0  0  0  0  0  0  0  0
   44.4596    4.7707   10.1835 N   0  0  0  0  0  0  0  0  0  0  0  0
   44.5137    6.2130   10.3730 C   0  0  0  0  0  0  0  0  0  0  0  0
   45.8436    6.6574   10.9683 C   0  0  0  0  0  0  0  0  0  0  0  0
   45.8531    7.6923   11.9023 N   0  0  0  0  0  0  0  0  0  0  0  0
   46.8802    6.0977   10.5966 O   0  0  0  0  0  0  0  0  0  0  0  0
   47.0688    7.9753   12.6915 C   0  0  0  0  0  0  0  0  0  0  0  0
   46.8471    8.9630   13.8532 C   0  0  0  0  0  0  0  0  0  0  0  0
   48.0964    9.0840   14.7415 C   0  0  0  0  0  0  0  0  0  0  0  0
   48.4084    7.7518   15.2787 N   0  0  0  0  0  0  0  0  0  0  0  0
   48.9747    7.0467   14.1194 C   0  0  0  0  0  0  0  0  0  0  0  0
   47.8347    6.7131   13.1350 C   0  0  0  0  0  0  0  0  0  0  0  0
   44.6776    8.4947   12.2226 C   0  0  0  0  0  0  0  0  0  0  0  0
   42.8581    4.2000   12.1646 C   0  0  1  0  0  0  0  0  0  0  0  0
   43.3405    3.8076   13.5410 C   0  0  0  0  0  0  0  0  0  0  0  0
   43.2533    5.2626   13.1610 C   0  0  0  0  0  0  0  0  0  0  0  0
   49.3607    9.4324   13.9556 C   0  0  0  0  0  0  0  0  0  0  0  0
   49.9606    8.0749   13.5664 C   0  0  0  0  0  0  0  0  0  0  0  0
  1  2  4  0
  2  3  4  0
  3  4  4  0
  4  5  4  0
  5  6  4  0
  1  6  4  0
  5  7  1  0
  7  8  2  0
  7  9  1  0
 11 12  4  0
  2 12  4  0
  3 10  4  0
 10 11  4  0
 12 13  1  0
 13 14  1  0
 14 15  1  0
 14 16  2  0
 17 15  1  0
 19 18  1  0
 19 20  1  0
 20 21  1  0
 21 22  1  0
 17 18  1  0
 17 22  1  0
 15 23  1  0
 24 11  1  6
 25 26  1  0
 24 25  1  0
 26 24  1  0
 19 27  1  0
 21 28  1  0
 27 28  1  0
M  END
